/*--------------------------------*- C++ -*----------------------------------*\
| =========                 |                                                 |
| \\      /  F ield         | OpenFOAM: The Open Source CFD Toolbox           |
|  \\    /   O peration     | Version:  4.1                                   |
|   \\  /    A nd           | Web:      www.OpenFOAM.org                      |
|    \\/     M anipulation  |                                                 |
\*---------------------------------------------------------------------------*/
FoamFile
{
    version     2.0;
    format      ascii;
    class       polyBoundaryMesh;
    location    "constant/polyMesh";
    object      boundary;
}
// * * * * * * * * * * * * * * * * * * * * * * * * * * * * * * * * * * * * * //

4
(
    inlet
    {
        type            cyclic;
        inGroups        1(cyclic);
        nFaces          20;
        startFace       1930;
        matchTolerance  0.0001;
        transform       unknown;
        neighbourPatch  outlet;
    }
    outlet
    {
        type            cyclic;
        inGroups        1(cyclic);
        nFaces          20;
        startFace       1950;
        matchTolerance  0.0001;
        transform       unknown;
        neighbourPatch  inlet;
    }
    walls
    {
        type            wall;
        inGroups        1(wall);
        nFaces          100;
        startFace       1970;
    }
    front_back
    {
        type            empty;
        inGroups        1(empty);
        nFaces          2000;
        startFace       2070;
    }
)

// ************************************************************************* //
