/*--------------------------------*- C++ -*----------------------------------*\ | ========= | | | \\ / F ield | OpenFOAM: The Open Source CFD Toolbox | | \\ / O peration | Version: 2.4.0 | | \\ / A nd | Web: www.OpenFOAM.org | | \\/ M anipulation | | \*---------------------------------------------------------------------------*/ FoamFile { version 2.0; format ascii; class dictionary; location "constant"; object transportProperties; } // * * * * * * * * * * * * * * * * * * * * * * * * * * * * * * * * * * * * * // transportModel Newtonian; nu [ 0 2 -1 0 0 0 0 ] 1e-05; // ************************************************************************* // /*--------------------------------*- C++ -*----------------------------------*\ | ========= | | | \\ / F ield | OpenFOAM: The Open Source CFD Toolbox | | \\ / O peration | Version: 5 | | \\ / A nd | Web: www.OpenFOAM.org | | \\/ M anipulation | | \*---------------------------------------------------------------------------*/ FoamFile { version 2.0; format ascii; class dictionary; location "constant"; object turbulenceProperties; } // * * * * * * * * * * * * * * * * * * * * * * * * * * * * * * * * * * * * * // simulationType LES; LES { LESModel kEqn; //dynamicKEqn; turbulence on; printCoeffs on; delta cubeRootVol; // kEqnCoeffs //dynamicKEqnCoeffs //{ // filter simple; // } cubeRootVolCoeffs { deltaCoeff 1; } PrandtlCoeffs { delta cubeRootVol; cubeRootVolCoeffs { deltaCoeff 1; } smoothCoeffs { delta cubeRootVol; cubeRootVolCoeffs { deltaCoeff 1; } maxDeltaRatio 1.1; } Cdelta 0.158; } vanDriestCoeffs { delta cubeRootVol; cubeRootVolCoeffs { deltaCoeff 1; } smoothCoeffs { delta cubeRootVol; cubeRootVolCoeffs { deltaCoeff 1; } maxDeltaRatio 1.1; } Aplus 26; Cdelta 0.158; } smoothCoeffs { delta cubeRootVol; cubeRootVolCoeffs { deltaCoeff 1; } maxDeltaRatio 1.1; } } // ************************************************************************* //
